10
glyc
C -0.20500963310600442 0.5183658872251743 0.11072627293642018
O 0.5334856984726623 0.8988133949106962 0.9900084038065491
O -1.1682415566802713 1.2721626073552672 -0.411341648577547
H -1.118588565755397 2.0612330672479517 0.1476412708921099
C -0.1878990793802401 -0.9431835585667566 -0.45245366367708995
H -0.9464622597855467 -1.4530081703338147 0.09783600031947118
N 1.0899706794667352 -1.6415809702956183 -0.28990980892694673
H 1.360874470323255 -1.7929306866925836 0.7186224893909169
H 1.8309427195000902 -1.1495839209589311 -0.7399740260361727
H -0.5683001211101317 -0.9516045652951783 -1.439526945015447
