10
glyc
C -0.27416245262838174 0.4092925480917471 0.1257348835830106
O 0.21886574257191707 0.7278406851215709 1.1623327608951142
O -1.2271466411988101 1.2161215436443864 -0.42672930490031435
H -1.3092223201352156 1.987638087996347 0.11572776246991553
C -0.00746554517117892 -0.8930097501766123 -0.5215414939327317
H -0.715787202585974 -1.5806273169210927 0.015138567779603967
N 1.3629423349635355 -1.3848509167177616 -0.37302752866666533
H 1.744703617214798 -1.2611086274481331 0.5504201536121839
H 1.9891535668983054 -0.8016698627106136 -0.9670131189493049
H -0.29049150538368945 -0.9184188301755711 -1.605087458361474
