10
glyc
C -0.44523970926679296 0.15399891799201784 0.18474994875684014
O -0.22240475027510836 0.2945945739528707 1.3879060087218578
O -1.642854046998556 0.5121588510379198 -0.45812578716848373
H -2.2644003011140215 0.6224660909029284 0.26140058430462243
C 0.5911648492174456 -0.2181158913104569 -0.8812549103525431
H 0.1507125226288159 -1.0270132881982386 -1.4659726414224687
N 1.884383287252044 -0.5654062438023907 -0.30738669329051277
H 1.9110944293519658 -1.4689803242243986 0.161101474387964
H 2.1080685080850587 0.14266832836553892 0.3701656923826341
H 0.7063208416903105 0.6740948700709956 -1.6310097229378382
