10
glyc
C -0.40555842852803053 0.14937063396211153 0.1760627285562646
O -0.13290600775183603 0.24069973981706555 1.3599146126034065
O -1.66041820087266 0.5071429490168303 -0.26764414793356966
H -2.1094322287664404 0.9360798141532805 0.4469084282447644
C 0.4815277519640114 -0.42772503644330556 -0.895999385876296
H 0.116477903902485 -1.4929517295659644 -0.8424837638633067
N 1.8873019648909024 -0.3542799498446505 -0.4701954332934221
H 1.843710702970841 -0.48353783969703257 0.5227542758242161
H 2.1366089671954036 0.6162178625026781 -0.6082973155692883
H 0.2651644345377382 -0.04353381137398508 -1.8420964179255634
