10
glyc
C -0.008485819174820398 0.5401865806437702 -0.0029727117460070264
O 1.1464991658193493 0.9135479001853355 0.11938021672954091
O -1.0102742802343214 1.4352040519383342 -0.06356206598145847
H -0.5966986935672736 2.2988199682126145 0.04798050406205488
C -0.5316682230115379 -0.8678322181217069 -0.05301539921187239
H -1.2382090080143477 -0.9470955827834671 0.7730574735223721
N 0.4394115721528555 -1.9293790114094824 0.020496189058828024
H 1.2306275208060666 -1.6114907726986067 0.597252760531268
H 0.8496411070486807 -2.0554111538195845 -0.8985940731541194
H -1.1153330108424964 -1.0244916267669828 -0.9710301642632397
