10
glyc
C -0.3867826422948657 0.35232865073591574 0.16402289878559284
O -0.046631019530955546 0.6833366162006757 1.2929262521628337
O -1.6159824586812632 0.46948216693735 -0.3237012829548415
H -2.0631798754432094 1.1281711469951767 0.22229770902956006
C 0.5947571974429047 -0.23756058772697858 -0.8722784777371019
H 0.038511511763603894 -0.7953679666671996 -1.6660006987107037
N 1.6364611734523513 -1.069302136832722 -0.3333026454729185
H 1.2275994255022826 -1.9735598676947481 -0.11580041165493841
H 1.8769386183157184 -0.6211667103807604 0.5218918259590557
H 1.0642734630815147 0.648860744609072 -1.3642876601590836
